304

N         -9.08305        4.24560       -0.48571
C         -8.78907        3.28987       -1.61379
C         -7.27919        3.11870       -1.82726
O         -6.75506        2.01261       -1.71885
C         -9.50680        3.69973       -2.89797
C        -10.99038        3.63765       -2.65299
O        -11.44030        3.76369       -1.51649
N        -11.78202        3.49551       -3.74078
H         -8.70605        3.90945        0.41011
H         -8.75033        5.20501       -0.63486
H        -10.11825        4.29089       -0.36475
H         -9.17289        2.32315       -1.26224
H         -9.24250        4.71768       -3.20308
H         -9.24043        3.01813       -3.71417
H        -11.45690        3.46223       -4.69983
H        -12.79014        3.48032       -3.60800
N         -6.54085        4.27174       -2.02159
C         -5.09787        4.17042       -2.34377
C         -4.32274        3.29306       -1.32862
O         -3.61634        2.35170       -1.68640
C         -4.45271        5.55683       -2.53018
C         -4.82300        6.62419       -1.46976
C         -3.62248        6.99142       -0.59772
C         -5.35925        7.88889       -2.14747
H         -6.99562        5.07432       -2.44339
H         -5.04244        3.63318       -3.30074
H         -3.36275        5.44179       -2.59183
H         -4.76917        5.91701       -3.51862
H         -5.61269        6.25796       -0.80564
H         -3.20427        6.10901       -0.10760
H         -2.83307        7.46159       -1.19149
H         -3.91592        7.69750        0.18654
H         -4.61071        8.33193       -2.81330
H         -6.25176        7.66156       -2.74030
H         -5.63783        8.64131       -1.40210
N         -4.55675        3.56062        0.00579
C         -3.74155        2.87744        1.03475
C         -4.04569        1.35201        1.05869
O         -3.25277        0.50979        1.47605
C         -4.05103        3.47624        2.41586
C         -2.88671        3.39651        3.36738
C         -2.79950        2.35968        4.30393
C         -1.87791        4.37136        3.33183
C         -1.72769        2.30515        5.19513
C         -0.80431        4.31432        4.22140
C         -0.73992        3.28158        5.14814
O          0.28878        3.18876        6.03764
H         -4.78903        4.52498        0.20938
H         -2.69110        3.00653        0.74746
H         -4.32232        4.53687        2.32330
H         -4.93108        2.99507        2.86302
H         -3.56642        1.59181        4.35682
H         -1.91668        5.20277        2.62793
H         -1.66327        1.50624        5.92839
H         -0.04434        5.09040        4.17641
H          0.85784        3.96988        5.92497
N         -5.31665        0.99638        0.64491
C         -5.76119       -0.40494        0.65593
C         -5.03407       -1.19353       -0.46405
O         -4.81954       -2.40245       -0.38838
C         -7.29747       -0.49775        0.46031
C         -8.10043        0.47857        1.35101
C         -7.80202       -1.93448        0.65581
C         -7.90499        0.29490        2.84897
H         -5.76242        1.62711       -0.01371
H         -5.45465       -0.84086        1.61395
H         -7.53036       -0.22708       -0.57857
H         -7.84741        1.51255        1.08894
H         -9.16864        0.37097        1.12268
H         -7.41857       -2.59802       -0.12547
H         -7.49500       -2.34249        1.62386
H         -8.89529       -1.97470        0.59898
H         -8.21997       -0.70015        3.17556
H         -6.86186        0.44393        3.14155
H         -8.50977        1.02783        3.39326
N         -4.75406       -0.46862       -1.60575
C         -4.08497       -1.08316       -2.75306
C         -2.58034       -1.30307       -2.46511
O         -1.90337       -2.05927       -3.15499
C         -4.26395       -0.19249       -3.99272
C         -4.09386       -0.95037       -5.30970
C         -5.27553       -1.84722       -5.59948
O         -5.25087       -3.06481       -5.43484
N         -6.40055       -1.21394       -6.03319
H         -4.75584        0.54663       -1.55068
H         -4.53937       -2.06919       -2.89769
H         -5.25649        0.27597       -3.97184
H         -3.53386        0.62613       -3.96566
H         -4.00392       -0.23403       -6.13522
H         -3.18304       -1.55658       -5.32412
H         -6.35746       -0.28379       -6.43065
H         -7.18588       -1.79146       -6.31101
N         -2.05356       -0.51658       -1.46689
C         -0.69561       -0.71512       -0.94373
C         -0.71782       -1.90787        0.03966
O          0.14166       -2.79140        0.02690
C         -0.21303        0.57670       -0.27583
C          1.16124        0.50555        0.30088
C          2.34633        0.50538       -0.40537
C          1.50964        0.48547        1.68935
N          3.38539        0.43812        0.48569
C          2.90076        0.45019        1.77148
C          0.77286        0.51459        2.88895
C          3.59557        0.45203        2.98507
C          1.45066        0.50884        4.11329
C          2.84085        0.48679        4.15821
H         -2.70796       -0.00737       -0.88833
H         -0.04256       -0.99108       -1.78066
H         -0.23858        1.38802       -1.01647
H         -0.91469        0.88488        0.50678
H          2.54830        0.56840       -1.46500
H          4.37437        0.44027        0.25045
H         -0.31067        0.56603        2.87478
H          4.68086        0.43760        3.01020
H          0.88451        0.54828        5.04112
H          3.34444        0.51006        5.12136
N         -1.75134       -1.92322        0.96715
C         -1.72684       -2.93865        2.02192
C         -1.91571       -4.35337        1.43631
O         -1.37097       -5.33593        1.94004
C         -2.81826       -2.71089        3.07456
C         -2.46136       -1.65007        4.13287
C         -3.68221       -1.37986        5.01569
C         -1.28337       -2.07708        5.01329
H         -2.21428       -1.03797        1.17144
H         -0.72414       -2.92399        2.46150
H         -3.75087       -2.42546        2.57056
H         -3.03340       -3.65466        3.59420
H         -2.19431       -0.71560        3.62969
H         -4.52196       -1.01353        4.41581
H         -4.00557       -2.28885        5.53451
H         -3.45681       -0.62228        5.77331
H         -1.47695       -3.04124        5.49544
H         -0.35788       -2.16767        4.43814
H         -1.09973       -1.33757        5.80025
N         -2.77963       -4.46552        0.36049
C         -3.10812       -5.79255       -0.17759
C         -1.86355       -6.46923       -0.78873
O         -1.82016       -7.67054       -1.03567
C         -4.24495       -5.73684       -1.22158
C         -3.89147       -5.12101       -2.59148
C         -3.33353       -6.14179       -3.59754
C         -2.79850       -5.51572       -4.87789
N         -3.91727       -5.23083       -5.80016
H         -3.36537       -3.66449        0.12202
H         -3.42645       -6.40594        0.67429
H         -4.63132       -6.75159       -1.38122
H         -5.07216       -5.15867       -0.79052
H         -4.80771       -4.69439       -3.01775
H         -3.19204       -4.29095       -2.45830
H         -2.50205       -6.69302       -3.16416
H         -4.10280       -6.89052       -3.82422
H         -2.28264       -4.56849       -4.70728
H         -2.16043       -6.22256       -5.41348
H         -4.50563       -6.05102       -5.96203
H         -4.51363       -4.45523       -5.45209
H         -3.53650       -4.91680       -6.69717
N         -0.90450       -5.57175       -1.20082
C          0.28468       -5.92924       -1.97222
C          1.37226       -6.52770       -1.04967
O          2.39443       -7.04475       -1.49990
C          0.82818       -4.66788       -2.63240
C          1.05283       -4.89000       -4.11068
O          0.07533       -5.33444       -4.77245
O          2.17778       -4.48739       -4.53755
H         -0.97193       -4.61611       -0.86380
H          0.00417       -6.72120       -2.67520
H          0.12450       -3.82945       -2.56585
H          1.75884       -4.33041       -2.15926
N          1.18345       -6.30763        0.29826
C          2.11448       -6.75730        1.31754
C          2.74299       -5.59941        2.09996
O          3.53005       -5.77969        3.03040
H          0.26784       -5.98868        0.60512
H          1.54748       -7.37457        2.02084
H          2.91904       -7.35036        0.87433
N          2.39519       -4.33636        1.67977
C          2.74872       -3.17487        2.46631
C          4.26557       -2.93317        2.42159
O          4.89201       -2.94306        1.35416
H          1.71417       -4.23270        0.93120
H          2.23934       -2.31485        2.03293
H          2.37237       -3.33786        3.47696
N          4.93226       -2.80782        3.62670
C          6.38470       -2.60063        3.66105
C          7.16681       -3.78327        3.06492
O          8.31514       -3.66459        2.64049
C          6.71790       -2.47104        5.15135
C          5.40721       -2.03693        5.78950
C          4.36004       -2.76419        4.96304
H          6.61279       -1.68973        3.09668
H          7.03607       -3.42990        5.57946
H          7.52275       -1.75081        5.32937
H          5.34885       -2.28007        6.85410
H          5.29109       -0.95247        5.68091
H          4.23009       -3.79687        5.30409
H          3.39544       -2.25428        4.98528
N          6.53196       -5.00264        3.14487
C          7.13587       -6.23644        2.65163
C          6.88652       -6.47963        1.14825
O          7.11603       -7.56788        0.62409
C          6.64581       -7.44838        3.45741
O          6.92204       -7.29233        4.85391
H          5.54205       -5.03109        3.39165
H          8.22128       -6.14127        2.77861
H          5.56410       -7.57934        3.34894
H          7.12532       -8.37384        3.12200
H          7.88246       -7.17084        4.94853
N          6.54166       -5.36883        0.40889
C          6.30421       -5.42332       -1.03877
C          7.24680       -4.47104       -1.80616
O          7.15603       -4.24963       -3.01413
C          4.84825       -5.07883       -1.35554
O          4.43261       -5.67561       -2.58026
H          6.23779       -4.52894        0.89952
H          6.53772       -6.42999       -1.40399
H          4.19313       -5.44179       -0.55813
H          4.69033       -3.99941       -1.43005
H          3.76203       -6.35615       -2.34402
N          8.24431       -3.88840       -1.04176
C          9.34578       -3.20717       -1.70357
C          8.93323       -1.85206       -2.28906
O          9.53374       -1.32038       -3.22091
H          8.39613       -4.28023       -0.11559
H         10.13425       -3.04056       -0.96414
H          9.72207       -3.84292       -2.51147
N          7.92830       -1.21457       -1.59721
C          7.36406        0.04851       -2.03532
C          6.93259        0.86751       -0.80557
O          6.34586        0.33503        0.14331
C          6.20145       -0.14562       -3.02822
C          5.16067       -1.19518       -2.60335
C          3.97903       -1.31996       -3.56896
N          3.90586       -2.61007       -4.25299
C          4.70408       -3.13103       -5.18144
N          5.70825       -2.43871       -5.72290
N          4.45340       -4.35031       -5.64186
H          7.47375       -1.71762       -0.83906
H          8.15987        0.58862       -2.55632
H          5.69993        0.81453       -3.19926
H          6.63758       -0.45008       -3.98320
H          5.63849       -2.16854       -2.48020
H          4.77023       -0.91679       -1.62043
H          3.04938       -1.24660       -2.99278
H          3.94380       -0.52002       -4.31482
H          3.11015       -3.25175       -4.07223
H          5.87254       -1.48645       -5.45472
H          6.34229       -2.88165       -6.36796
H          3.59941       -4.79755       -5.25733
H          5.04853       -4.87047       -6.25690
N          7.18758        2.22004       -0.82283
C          6.85334        3.06053        0.32655
C          5.33587        3.31572        0.37604
O          4.61184        3.10340       -0.60269
C          7.62256        4.35831        0.07590
C          7.68253        4.43981       -1.44613
C          7.85197        2.98809       -1.86492
H          7.16942        2.55800        1.24656
H          7.15821        5.24801        0.51045
H          8.63981        4.26949        0.47617
H          6.73687        4.83641       -1.83489
H          8.49290        5.07894       -1.80735
H          7.41162        2.78136       -2.84426
H          8.90873        2.70030       -1.87451
N          4.82904        3.82550        1.54980
C          3.40230        4.08987        1.66645
C          3.02497        5.35535        0.88243
O          3.77099        6.33735        0.84078
C          3.16121        4.30837        3.16030
C          4.51741        4.78061        3.67650
C          5.51051        4.01360        2.81722
H          2.85101        3.22880        1.29338
H          2.36609        5.02759        3.37790
H          2.89969        3.36198        3.64226
H          4.62499        5.85803        3.50434
H          4.65340        4.59274        4.74514
H          6.45579        4.54559        2.68956
H          5.71489        3.02252        3.23658
N          1.77762        5.36764        0.30110
C          1.27993        6.57354       -0.33957
C          0.73114        7.50563        0.75849
O         -0.00138        7.10271        1.66367
C          0.16391        6.07492       -1.25387
C         -0.36592        4.83931       -0.53066
C          0.87797        4.24555        0.11379
H          2.07738        7.06793       -0.90467
H         -0.61407        6.81920       -1.43797
H          0.58401        5.77229       -2.22075
H         -1.08097        5.13519        0.24349
H         -0.87097        4.13639       -1.19906
H          0.65695        3.75841        1.06756
H          1.36697        3.53243       -0.55699
N          1.15832        8.81292        0.62380
C          0.36163        9.88714        1.26131
C         -0.87841       10.27159        0.40131
O         -0.85451        9.81287       -0.78645
C          1.22269       11.13796        1.40338
O          2.42604       10.81877        2.12294
O         -1.77169       10.95138        0.97440
H          1.38111        9.06511       -0.33444
H          0.04221        9.53401        2.24826
H          1.52726       11.53189        0.42727
H          0.70716       11.93405        1.94832
H          2.65056        9.90667        1.85208
